<routes>
    <vType id="car" accel="2.6" decel="4.5" sigma="0.5" length="5" minGap="2.5" maxSpeed="70"/>
    <flow id="f_high" type="car" begin="0" end="1000" vehsPerHour="2000">
        <route edges="A0A1 A1A2"/> 
    </flow>
</routes>