<routes xmlns:xsi="http://www.w3.org/2001/XMLSchema-instance" xsi:noNamespaceSchemaLocation="http://sumo.dlr.de/xsd/routes_file.xsd">
    
    <vType id="car" accel="2.6" decel="4.5" sigma="0.5" length="5" minGap="2.5" maxSpeed="70"/>

    <route id="route_0" edges="A0B0"/>

    <flow id="f_0" type="car" begin="0" end="1000" vehsPerHour="500" from="A0A1" to="A1A2"/>

</routes>